
     RDKit          3D

  5  4  0  0  0  0  0  0  0  0999 V2000
   20.6218   -3.0659  -29.7049 C   0  0  0  0  0  0  0  0  0  0  0  0
   20.5894   -1.7263  -29.7100 C   0  0  0  0  0  0  0  0  0  0  0  0
   19.2972   -1.0132  -29.9143 C   0  0  0  0  0  0  0  0  0  0  0  0
   18.2603   -1.6541  -30.0783 O   0  0  0  0  0  0  0  0  0  0  0  0
   19.3571    0.3255  -29.9048 N   0  0  0  0  0  0  0  0  0  0  0  0
  1  2  2  0
  2  3  1  0
  3  4  2  0
  3  5  1  0
M  END
$$$$
