
     RDKit          3D

  5  4  0  0  0  0  0  0  0  0999 V2000
   20.9030   -2.9712  -29.6604 C   0  0  0  0  0  0  0  0  0  0  0  0
   20.8706   -1.6316  -29.6655 C   0  0  0  0  0  0  0  0  0  0  0  0
   19.5784   -0.9185  -29.8698 C   0  0  0  0  0  0  0  0  0  0  0  0
   18.5414   -1.5594  -30.0338 O   0  0  0  0  0  0  0  0  0  0  0  0
   19.6383    0.4202  -29.8604 N   0  0  0  0  0  0  0  0  0  0  0  0
  1  2  2  0
  2  3  1  0
  3  4  2  0
  3  5  1  0
M  END
$$$$
