
     RDKit          3D

  5  4  0  0  0  0  0  0  0  0999 V2000
   20.3407   -3.1606  -29.7493 C   0  0  0  0  0  0  0  0  0  0  0  0
   20.3082   -1.8210  -29.7544 C   0  0  0  0  0  0  0  0  0  0  0  0
   19.0160   -1.1079  -29.9588 C   0  0  0  0  0  0  0  0  0  0  0  0
   17.9791   -1.7488  -30.1227 O   0  0  0  0  0  0  0  0  0  0  0  0
   19.0760    0.2307  -29.9493 N   0  0  0  0  0  0  0  0  0  0  0  0
  1  2  2  0
  2  3  1  0
  3  4  2  0
  3  5  1  0
M  END
$$$$
