
     RDKit          3D

  5  4  0  0  0  0  0  0  0  0999 V2000
   20.6218   -3.0659  -29.7049 C   0  0  0  0  0  0  0  0  0  0  0  0
   20.6819   -1.7996  -30.1391 C   0  0  0  0  0  0  0  0  0  0  0  0
   19.4685   -1.1489  -30.7083 C   0  0  0  0  0  0  0  0  0  0  0  0
   18.4115   -1.7739  -30.7796 O   0  0  0  0  0  0  0  0  0  0  0  0
   19.6187    0.1182  -31.1177 N   0  0  0  0  0  0  0  0  0  0  0  0
  1  2  2  0
  2  3  1  0
  3  4  2  0
  3  5  1  0
M  END
$$$$
