
     RDKit          3D

  5  4  0  0  0  0  0  0  0  0999 V2000
   20.6218   -3.0659  -29.7049 C   0  0  0  0  0  0  0  0  0  0  0  0
   20.5451   -1.7996  -29.2733 C   0  0  0  0  0  0  0  0  0  0  0  0
   19.2151   -1.1489  -29.1062 C   0  0  0  0  0  0  0  0  0  0  0  0
   18.1878   -1.7739  -29.3645 O   0  0  0  0  0  0  0  0  0  0  0  0
   19.2318    0.1182  -28.6704 N   0  0  0  0  0  0  0  0  0  0  0  0
  1  2  2  0
  2  3  1  0
  3  4  2  0
  3  5  1  0
M  END
$$$$
