
     RDKit          3D

  5  4  0  0  0  0  0  0  0  0999 V2000
   20.6218   -3.0659  -29.7049 C   0  0  0  0  0  0  0  0  0  0  0  0
   22.2994   -2.5008  -29.4396 Cl  0  0  0  0  0  0  0  0  0  0  0  0
   21.2941   -2.8394  -31.0378 C   0  0  0  0  0  0  0  0  0  0  0  0
   20.6768   -3.0474  -32.0812 O   0  0  0  0  0  0  0  0  0  0  0  0
   22.5632   -2.4119  -30.9906 N   0  0  0  0  0  0  0  0  0  0  0  0
  1  2  1  0
  1  3  1  0
  3  4  2  0
  3  5  1  0
M  END
$$$$
