
     RDKit          3D

  5  4  0  0  0  0  0  0  0  0999 V2000
    8.0085   -0.9467   -1.6841 C   0  0  0  0  0  2  0  0  0  0  0  0
    6.8546   -1.6061   -1.5231 C   0  0  0  0  0  3  0  0  0  0  0  0
    5.5698   -0.8635   -1.4352 C   0  0  0  0  0  0  0  0  0  0  0  0
    5.4587    0.2473   -1.9481 O   0  0  0  0  0  0  0  0  0  0  0  0
    4.5264   -1.5019   -0.7762 N   0  0  0  0  0  1  0  0  0  0  0  0
  1  2  2  0
  2  3  1  0
  3  4  2  0
  3  5  1  0
M  END
$$$$
