
     RDKit          3D

  5  4  0  0  0  0  0  0  0  0999 V2000
   24.7460   13.1800   -2.3992 C   0  0  0  0  0  0  0  0  0  0  0  0
   24.8763   14.5114   -2.4770 C   0  0  0  0  0  0  0  0  0  0  0  0
   23.8479   15.3978   -1.8632 C   0  0  0  0  0  0  0  0  0  0  0  0
   22.8793   14.9074   -1.2851 O   0  0  0  0  0  0  0  0  0  0  0  0
   24.0576   16.7153   -1.9884 N   0  0  0  0  0  0  0  0  0  0  0  0
  1  2  2  0
  2  3  1  0
  3  4  2  0
  3  5  1  0
M  END
$$$$
