
     RDKit          3D

 33 37  0  0  0  0  0  0  0  0999 V2000
    8.0085   -0.9467   -1.6841 C   0  0  0  0  0  0  0  0  0  0  0  0
    6.8546   -1.6061   -1.5231 C   0  0  0  0  0  0  0  0  0  0  0  0
    5.5698   -0.8635   -1.4352 C   0  0  0  0  0  0  0  0  0  0  0  0
    5.4587    0.2473   -1.9481 O   0  0  0  0  0  0  0  0  0  0  0  0
    4.5264   -1.5019   -0.7762 N   0  0  0  0  0  0  0  0  0  0  0  0
    4.7153   -2.4634    0.3118 C   0  0  0  0  0  0  0  0  0  0  0  0
    4.6429   -1.7401    1.6592 C   0  0  0  0  0  0  0  0  0  0  0  0
    3.3410   -0.9429    1.7994 C   0  0  0  0  0  0  0  0  0  0  0  0
    3.1126   -0.0114    0.5920 C   0  0  1  0  0  0  0  0  0  0  0  0
    3.2386   -0.8004   -0.7198 C   0  0  0  0  0  0  0  0  0  0  0  0
    1.8336    0.6762    0.6809 N   0  0  0  0  0  0  0  0  0  0  0  0
    0.6824   -0.0200    0.5609 N   0  0  0  0  0  0  0  0  0  0  0  0
   -0.2830    0.9050    0.7184 C   0  0  0  0  0  0  0  0  0  0  0  0
   -1.6885    0.5043    0.6871 C   0  0  0  0  0  0  0  0  0  0  0  0
   -2.5882    0.9542    1.6622 C   0  0  0  0  0  0  0  0  0  0  0  0
   -3.9298    0.5636    1.6208 C   0  0  0  0  0  0  0  0  0  0  0  0
   -4.3833   -0.2782    0.6047 C   0  0  0  0  0  0  0  0  0  0  0  0
   -5.7103   -0.6441    0.6588 O   0  0  0  0  0  0  0  0  0  0  0  0
   -6.3736   -0.7957   -0.5359 C   0  0  0  0  0  0  0  0  0  0  0  0
   -7.0232   -2.0080   -0.7640 C   0  0  0  0  0  0  0  0  0  0  0  0
   -7.7322   -2.2010   -1.9493 C   0  0  0  0  0  0  0  0  0  0  0  0
   -7.8036   -1.1758   -2.8939 C   0  0  0  0  0  0  0  0  0  0  0  0
   -7.1750    0.0461   -2.6511 C   0  0  0  0  0  0  0  0  0  0  0  0
   -6.4641    0.2417   -1.4669 C   0  0  0  0  0  0  0  0  0  0  0  0
   -3.4868   -0.7625   -0.3505 C   0  0  0  0  0  0  0  0  0  0  0  0
   -2.1462   -0.3682   -0.3105 C   0  0  0  0  0  0  0  0  0  0  0  0
    0.2715    2.2087    0.8958 C   0  0  0  0  0  0  0  0  0  0  0  0
   -0.1674    3.5301    1.0523 C   0  0  0  0  0  0  0  0  0  0  0  0
   -1.4948    3.9365    1.0218 N   0  0  0  0  0  0  0  0  0  0  0  0
    0.7519    4.5042    1.2175 N   0  0  0  0  0  0  0  0  0  0  0  0
    2.0560    4.1676    1.2180 C   0  0  0  0  0  0  0  0  0  0  0  0
    2.5918    2.9485    1.0586 N   0  0  0  0  0  0  0  0  0  0  0  0
    1.6422    2.0123    0.8932 C   0  0  0  0  0  0  0  0  0  0  0  0
  1  2  2  0
  2  3  1  0
  3  4  2  0
  3  5  1  0
  5  6  1  0
  6  7  1  0
  7  8  1  0
  8  9  1  0
  9 10  1  0
  9 11  1  1
 11 12  1  0
 12 13  2  0
 13 14  1  0
 14 15  2  0
 15 16  1  0
 16 17  2  0
 17 18  1  0
 18 19  1  0
 19 20  2  0
 20 21  1  0
 21 22  2  0
 22 23  1  0
 23 24  2  0
 17 25  1  0
 25 26  2  0
 13 27  1  0
 27 28  2  0
 28 29  1  0
 28 30  1  0
 30 31  2  0
 31 32  1  0
 32 33  2  0
 10  5  1  0
 33 11  1  0
 26 14  1  0
 33 27  1  0
 24 19  1  0
M  END
$$$$
