
     RDKit          3D

  5  4  0  0  0  0  0  0  0  0999 V2000
   -7.7745  -50.0194   16.7373 C   0  0  0  0  0  0  0  0  0  0  0  0
   -7.2942  -48.8534   17.1907 C   0  0  0  0  0  0  0  0  0  0  0  0
   -6.2108  -48.8413   18.2135 C   0  0  0  0  0  0  0  0  0  0  0  0
   -5.7573  -49.9014   18.6417 O   0  0  0  0  0  0  0  0  0  0  0  0
   -5.7908  -47.6321   18.6100 N   0  0  0  0  0  0  0  0  0  0  0  0
  1  2  2  0
  2  3  1  0
  3  4  2  0
  3  5  1  0
M  END
$$$$
