
     RDKit          3D

 24 26  0  0  0  0  0  0  0  0999 V2000
   -6.1761    1.4004   -2.9229 C   0  0  0  0  0  0  0  0  0  0  0  0
   -5.1928    0.9186   -2.1494 C   0  0  0  0  0  0  0  0  0  0  0  0
   -5.4648   -0.1797   -1.1803 C   0  0  0  0  0  0  0  0  0  0  0  0
   -6.5693   -0.7172   -1.1271 O   0  0  0  0  0  0  0  0  0  0  0  0
   -4.4289   -0.5517   -0.3608 N   0  0  0  0  0  0  0  0  0  0  0  0
   -4.6421   -1.5782    0.6530 C   0  0  0  0  0  0  0  0  0  0  0  0
   -3.3253   -1.6589    1.3575 C   0  0  0  0  0  0  0  0  0  0  0  0
   -2.9571   -2.4863    2.4055 C   0  0  0  0  0  0  0  0  0  0  0  0
   -1.6637   -2.3699    2.9187 C   0  0  0  0  0  0  0  0  0  0  0  0
   -0.7531   -1.4495    2.3698 C   0  0  0  0  0  0  0  0  0  0  0  0
   -1.1242   -0.6306    1.2907 C   0  0  0  0  0  0  0  0  0  0  0  0
   -0.1752    0.3350    0.6668 C   0  0  0  0  0  0  0  0  0  0  0  0
   -0.6322    1.3847    0.2315 O   0  0  0  0  0  0  0  0  0  0  0  0
    1.1311   -0.1054    0.6109 N   0  0  0  0  0  0  0  0  0  0  0  0
    2.1719    0.6081    0.0698 C   0  0  0  0  0  0  0  0  0  0  0  0
    3.4620    0.1395   -0.0345 C   0  0  0  0  0  0  0  0  0  0  0  0
    4.1605    1.1551   -0.6308 N   0  0  0  0  0  0  0  0  0  0  0  0
    5.5733    1.1645   -0.9834 C   0  0  0  0  0  0  0  0  0  0  0  0
    5.9087    0.0733   -1.9998 C   0  0  0  0  0  0  0  0  0  0  0  0
    6.4632    1.0623    0.2549 C   0  0  0  0  0  0  0  0  0  0  0  0
    3.2817    2.1770   -0.8528 C   0  0  0  0  0  0  0  0  0  0  0  0
    2.0757    1.8688   -0.4357 N   0  0  0  0  0  0  0  0  0  0  0  0
   -2.4254   -0.7332    0.8119 C   0  0  0  0  0  0  0  0  0  0  0  0
   -3.0914    0.0434   -0.2809 C   0  0  0  0  0  0  0  0  0  0  0  0
  1  2  2  0
  2  3  1  0
  3  4  2  0
  3  5  1  0
  5  6  1  0
  6  7  1  0
  7  8  2  0
  8  9  1  0
  9 10  2  0
 10 11  1  0
 11 12  1  0
 12 13  2  0
 12 14  1  0
 14 15  1  0
 15 16  2  0
 16 17  1  0
 17 18  1  0
 18 19  1  0
 18 20  1  0
 17 21  1  0
 21 22  2  0
 11 23  2  0
 23 24  1  0
 24  5  1  0
 23  7  1  0
 22 15  1  0
M  END
$$$$
