
     RDKit          3D

  5  4  0  0  0  0  0  0  0  0999 V2000
   -6.1761    1.4004   -2.9229 C   0  0  0  0  0  2  0  0  0  0  0  0
   -5.1928    0.9186   -2.1494 C   0  0  0  0  0  3  0  0  0  0  0  0
   -5.4648   -0.1797   -1.1803 C   0  0  0  0  0  0  0  0  0  0  0  0
   -6.5693   -0.7172   -1.1271 O   0  0  0  0  0  0  0  0  0  0  0  0
   -4.4289   -0.5517   -0.3608 N   0  0  0  0  0  1  0  0  0  0  0  0
  1  2  2  0
  2  3  1  0
  3  4  2  0
  3  5  1  0
M  END
$$$$
