
     RDKit          3D

  5  4  0  0  0  0  0  0  0  0999 V2000
   24.4927   13.1254   -2.2481 C   0  0  0  0  0  0  0  0  0  0  0  0
   24.6230   14.4568   -2.3258 C   0  0  0  0  0  0  0  0  0  0  0  0
   23.5946   15.3431   -1.7120 C   0  0  0  0  0  0  0  0  0  0  0  0
   22.6260   14.8527   -1.1339 O   0  0  0  0  0  0  0  0  0  0  0  0
   23.8043   16.6607   -1.8372 N   0  0  0  0  0  0  0  0  0  0  0  0
  1  2  2  0
  2  3  1  0
  3  4  2  0
  3  5  1  0
M  END
$$$$
