
     RDKit          3D

  5  4  0  0  0  0  0  0  0  0999 V2000
   24.9993   13.2347   -2.5504 C   0  0  0  0  0  0  0  0  0  0  0  0
   25.1296   14.5661   -2.6282 C   0  0  0  0  0  0  0  0  0  0  0  0
   24.1012   15.4524   -2.0144 C   0  0  0  0  0  0  0  0  0  0  0  0
   23.1325   14.9620   -1.4363 O   0  0  0  0  0  0  0  0  0  0  0  0
   24.3109   16.7700   -2.1396 N   0  0  0  0  0  0  0  0  0  0  0  0
  1  2  2  0
  2  3  1  0
  3  4  2  0
  3  5  1  0
M  END
$$$$
