
     RDKit          3D

  5  4  0  0  0  0  0  0  0  0999 V2000
   24.7460   13.1800   -2.3992 C   0  0  0  0  0  0  0  0  0  0  0  0
   24.6638   14.4354   -2.8606 C   0  0  0  0  0  0  0  0  0  0  0  0
   23.4546   15.2572   -2.5730 C   0  0  0  0  0  0  0  0  0  0  0  0
   22.5319   14.7832   -1.9120 O   0  0  0  0  0  0  0  0  0  0  0  0
   23.4569   16.5005   -3.0726 N   0  0  0  0  0  0  0  0  0  0  0  0
  1  2  2  0
  2  3  1  0
  3  4  2  0
  3  5  1  0
M  END
$$$$
