
     RDKit          3D

  5  4  0  0  0  0  0  0  0  0999 V2000
   24.7460   13.1800   -2.3992 C   0  0  0  0  0  0  0  0  0  0  0  0
   25.1130   14.4354   -2.1079 C   0  0  0  0  0  0  0  0  0  0  0  0
   24.2859   15.2572   -1.1802 C   0  0  0  0  0  0  0  0  0  0  0  0
   23.2661   14.7832   -0.6818 O   0  0  0  0  0  0  0  0  0  0  0  0
   24.7267   16.5005   -0.9450 N   0  0  0  0  0  0  0  0  0  0  0  0
  1  2  2  0
  2  3  1  0
  3  4  2  0
  3  5  1  0
M  END
$$$$
