
     RDKit          3D

  5  4  0  0  0  0  0  0  0  0999 V2000
   24.7460   13.1800   -2.3992 C   0  0  0  0  0  0  0  0  0  0  0  0
   26.2573   13.5061   -3.3012 Cl  0  0  0  0  0  0  0  0  0  0  0  0
   24.4705   13.1206   -3.8827 C   0  0  0  0  0  0  0  0  0  0  0  0
   23.3353   12.8756   -4.2880 O   0  0  0  0  0  0  0  0  0  0  0  0
   25.5199   13.3470   -4.6846 N   0  0  0  0  0  0  0  0  0  0  0  0
  1  2  1  0
  1  3  1  0
  3  4  2  0
  3  5  1  0
M  END
$$$$
