
     RDKit          3D

  5  4  0  0  0  0  0  0  0  0999 V2000
   -7.2791   -1.9425   -0.4922 C   0  0  0  0  0  0  0  0  0  0  0  0
   -6.8200   -0.7639   -0.0498 C   0  0  0  0  0  0  0  0  0  0  0  0
   -5.7476   -0.7226    0.9838 C   0  0  0  0  0  0  0  0  0  0  0  0
   -5.2837   -1.7704    1.4309 O   0  0  0  0  0  0  0  0  0  0  0  0
   -5.3488    0.4976    1.3681 N   0  0  0  0  0  0  0  0  0  0  0  0
  1  2  2  0
  2  3  1  0
  3  4  2  0
  3  5  1  0
M  END
$$$$
